Version 4
SHEET 1 880 680
WIRE 272 64 160 64
WIRE 16 80 -144 80
WIRE 112 80 96 80
WIRE -144 96 -144 80
WIRE 224 144 208 144
WIRE 208 160 208 144
WIRE 160 176 160 64
WIRE 176 176 160 176
WIRE 272 192 272 64
WIRE 272 192 240 192
WIRE 288 192 272 192
WIRE 16 208 -144 208
WIRE 112 208 112 80
WIRE 112 208 96 208
WIRE 176 208 112 208
WIRE -144 224 -144 208
WIRE 208 240 208 224
WIRE 224 240 208 240
WIRE 16 336 -144 336
WIRE 112 336 112 208
WIRE 112 336 96 336
WIRE -144 352 -144 336
WIRE 240 368 224 368
WIRE 320 368 304 368
WIRE 224 384 224 368
WIRE 304 384 304 368
FLAG 208 144 VCC
FLAG 208 240 VEE
FLAG -144 176 0
FLAG -144 304 0
FLAG -144 432 0
FLAG 288 192 OUT
IOPIN 288 192 Out
FLAG 224 464 0
FLAG 304 464 0
FLAG 224 368 VCC
FLAG 304 368 VEE
FLAG -144 80 IN1
FLAG -144 208 IN2
FLAG -144 336 IN3
SYMBOL OpAmps\\UniversalOpAmp2 208 192 R0
SYMATTR InstName U1
SYMBOL res 112 64 R90
WINDOW 0 0 56 VBottom 2
WINDOW 3 32 56 VTop 2
SYMATTR InstName R1
SYMATTR Value 100k
SYMBOL res 112 192 R90
WINDOW 0 0 56 VBottom 2
WINDOW 3 32 56 VTop 2
SYMATTR InstName R2
SYMATTR Value 100k
SYMBOL res 112 320 R90
WINDOW 0 0 56 VBottom 2
WINDOW 3 32 56 VTop 2
SYMATTR InstName R3
SYMATTR Value 100k
SYMBOL voltage -144 80 R0
WINDOW 123 0 0 Left 0
WINDOW 39 0 0 Left 0
SYMATTR InstName V1
SYMATTR Value SINE(0 1 1k)
SYMBOL voltage -144 208 R0
WINDOW 123 0 0 Left 0
WINDOW 39 0 0 Left 0
SYMATTR InstName V2
SYMATTR Value SINE(0 1 1k)
SYMBOL voltage -144 336 R0
WINDOW 123 0 0 Left 0
WINDOW 39 0 0 Left 0
SYMATTR InstName V3
SYMATTR Value SINE(0 1 1k)
SYMBOL voltage 224 368 R0
WINDOW 123 0 0 Left 0
WINDOW 39 0 0 Left 0
SYMATTR InstName V4
SYMATTR Value 12
SYMBOL voltage 304 368 R0
WINDOW 123 0 0 Left 0
WINDOW 39 0 0 Left 0
SYMATTR InstName V5
SYMATTR Value -12
TEXT -122 488 Left 2 !.tran 3m
